[Format]      =  4.0
[Frequency]   =  0
[Precision]   =  1e-008
[MinAngle]    =  30
[DoSmartMesh] =  1
[Depth]       =  20
[LengthUnits] =  centimeters
[ProblemType] =  planar
[Coordinates] =  cartesian
[ACSolver]    =  0
[PrevType]    =  0
[PrevSoln]    =  ""
[Comment]     =  "Add comments here."
[PointProps]   = 0
[BdryProps]   = 1
  <BeginBdry>
    <BdryName> = "Boundary"
    <BdryType> = 0
    <A_0> = 0
    <A_1> = 0
    <A_2> = 0
    <Phi> = 0
    <c0> = 0
    <c0i> = 0
    <c1> = 0
    <c1i> = 0
    <Mu_ssd> = 0
    <Sigma_ssd> = 0
    <innerangle> = 0
    <outerangle> = 0
  <EndBdry>
[BlockProps]  = 3
  <BeginBlock>
    <BlockName> = "Ferro"
    <Mu_x> = 2000
    <Mu_y> = 2000
    <H_c> = 0
    <H_cAngle> = 0
    <J_re> = 0
    <J_im> = 0
    <Sigma> = 0
    <d_lam> = 0
    <Phi_h> = 0
    <Phi_hx> = 0
    <Phi_hy> = 0
    <LamType> = 0
    <LamFill> = 1
    <NStrands> = 0
    <WireD> = 0
    <BHPoints> = 0
  <EndBlock>
  <BeginBlock>
    <BlockName> = "Air"
    <Mu_x> = 1
    <Mu_y> = 1
    <H_c> = 0
    <H_cAngle> = 0
    <J_re> = 0
    <J_im> = 0
    <Sigma> = 0
    <d_lam> = 0
    <Phi_h> = 0
    <Phi_hx> = 0
    <Phi_hy> = 0
    <LamType> = 0
    <LamFill> = 1
    <NStrands> = 0
    <WireD> = 0
    <BHPoints> = 0
  <EndBlock>
  <BeginBlock>
    <BlockName> = "16 AWG"
    <Mu_x> = 1
    <Mu_y> = 1
    <H_c> = 0
    <H_cAngle> = 0
    <J_re> = 0
    <J_im> = 0
    <Sigma> = 58
    <d_lam> = 0
    <Phi_h> = 0
    <Phi_hx> = 0
    <Phi_hy> = 0
    <LamType> = 3
    <LamFill> = 1
    <NStrands> = 1
    <WireD> = 1.2911827701741401
    <BHPoints> = 0
  <EndBlock>
[CircuitProps]  = 2
  <BeginCircuit>
    <CircuitName> = "EstatorA"
    <TotalAmps_re> = 0
    <TotalAmps_im> = 0
    <CircuitType> = 1
  <EndCircuit>
  <BeginCircuit>
    <CircuitName> = "Rotor"
    <TotalAmps_re> = 3
    <TotalAmps_im> = 0
    <CircuitType> = 1
  <EndCircuit>
[NumPoints] = 450
0.75	7.6390000000000002	0	0
0.75	7.7389999999999999	0	0
0.5	7.9390000000000001	0	0
0.5	8.8390000000000004	0	0
-0.75	7.6390000000000002	0	0
-0.75	7.7389999999999999	0	0
-0.5	7.9390000000000001	0	0
-0.5	8.8390000000000004	0	0
-1.2526743158213547	7.5728216708490841	0	0
-1.2785562203316068	7.6694142534779903	0	0
-1.5718014859243781	7.7978946574601746	0	0
-1.8047386265166467	8.6672279011203344	0	0
-2.7015630552549572	7.1845931031953025	0	0
-2.7274449597652093	7.2811856858242088	0	0
-2.5377273122134465	7.539075612357653	0	0
-2.7706644528057152	8.4084088560178145	0	0
-3.1699809471616707	6.9905680595093278	0	0
-3.2199809471616705	7.0771705998877712	0	0
-3.5364872981077808	7.1253756806446598	0	0
-3.9864872981077801	7.9047985440506521	0	0
-4.4690190528383287	6.2405680595093278	0	0
-4.5190190528383285	6.3271705998877712	0	0
-4.4025127018922197	6.6253756806446589	0	0
-4.8525127018922198	7.4047985440506539	0	0
-4.871258615594126	5.9319187873739487	0	0
-4.9419692937127806	6.0026294654926033	0	0
-5.2601673452467281	5.967274126433276	0	0
-5.8965634483146188	6.6036702295011667	0	0
-5.931918787373947	4.8712586155941278	0	0
-6.0026294654926016	4.9419692937127815	0	0
-5.9672741264332751	5.2601673452467281	0	0
-6.6036702295011676	5.8965634483146205	0	0
-6.2405680595093269	4.4690190528383305	0	0
-6.3271705998877703	4.5190190528383303	0	0
-6.6253756806446589	4.4025127018922205	0	0
-7.404798544050653	4.8525127018922198	0	0
-6.9905680595093269	3.169980947161672	0	0
-7.0771705998877703	3.2199809471616714	0	0
-7.125375680644658	3.5364872981077813	0	0
-7.904798544050653	3.9864872981077815	0	0
-7.1845931031953025	2.7015630552549585	0	0
-7.2811856858242088	2.7274449597652111	0	0
-7.539075612357653	2.5377273122134474	0	0
-8.4084088560178127	2.7706644528057156	0	0
-7.5728216708490832	1.252674315821356	0	0
-7.6694142534779903	1.2785562203316077	0	0
-7.7978946574601737	1.5718014859243792	0	0
-8.6672279011203344	1.8047386265166474	0	0
-7.6390000000000011	0.75000000000000178	0	0
-7.7390000000000008	0.75000000000000178	0	0
-7.9390000000000018	0.50000000000000044	0	0
-8.8389999999999986	0.50000000000000089	0	0
-7.6390000000000011	-0.74999999999999822	0	0
-7.7390000000000008	-0.74999999999999867	0	0
-7.9390000000000018	-0.49999999999999911	0	0
-8.8390000000000004	-0.49999999999999822	0	0
-7.5728216708490841	-1.2526743158213542	0	0
-7.6694142534779903	-1.2785562203316063	0	0
-7.7978946574601746	-1.5718014859243776	0	0
-8.6672279011203344	-1.8047386265166463	0	0
-7.1845931031953025	-2.7015630552549568	0	0
-7.2811856858242088	-2.7274449597652088	0	0
-7.539075612357653	-2.5377273122134461	0	0
-8.4084088560178145	-2.7706644528057147	0	0
-6.9905680595093278	-3.1699809471616702	0	0
-7.0771705998877712	-3.21998094716167	0	0
-7.1253756806446598	-3.5364872981077804	0	0
-7.9047985440506521	-3.9864872981077797	0	0
-6.2405680595093278	-4.4690190528383287	0	0
-6.3271705998877712	-4.5190190528383285	0	0
-6.6253756806446589	-4.4025127018922197	0	0
-7.4047985440506539	-4.8525127018922189	0	0
-5.9319187873739487	-4.871258615594126	0	0
-6.0026294654926033	-4.9419692937127806	0	0
-5.967274126433276	-5.2601673452467281	0	0
-6.6036702295011667	-5.8965634483146188	0	0
-4.8712586155941278	-5.931918787373947	0	0
-4.9419692937127815	-6.0026294654926016	0	0
-5.2601673452467281	-5.9672741264332751	0	0
-5.8965634483146205	-6.6036702295011676	0	0
-4.4690190528383305	-6.2405680595093269	0	0
-4.5190190528383303	-6.3271705998877703	0	0
-4.4025127018922205	-6.6253756806446589	0	0
-4.8525127018922207	-7.404798544050653	0	0
-3.1699809471616724	-6.9905680595093269	0	0
-3.2199809471616718	-7.0771705998877703	0	0
-3.5364872981077817	-7.125375680644658	0	0
-3.9864872981077819	-7.904798544050653	0	0
-2.701563055254959	-7.1845931031953025	0	0
-2.7274449597652115	-7.2811856858242088	0	0
-2.5377273122134478	-7.539075612357653	0	0
-2.770664452805716	-8.4084088560178127	0	0
-1.2526743158213565	-7.5728216708490832	0	0
-1.2785562203316081	-7.6694142534779903	0	0
-1.5718014859243796	-7.7978946574601737	0	0
-1.8047386265166478	-8.6672279011203344	0	0
-0.75000000000000222	-7.6390000000000011	0	0
-0.75000000000000222	-7.7390000000000008	0	0
-0.50000000000000089	-7.9390000000000018	0	0
-0.50000000000000144	-8.8389999999999986	0	0
0.74999999999999778	-7.6390000000000011	0	0
0.74999999999999822	-7.7390000000000008	0	0
0.49999999999999861	-7.9390000000000018	0	0
0.49999999999999767	-8.8390000000000004	0	0
1.2526743158213538	-7.5728216708490841	0	0
1.2785562203316059	-7.6694142534779903	0	0
1.5718014859243772	-7.7978946574601746	0	0
1.8047386265166458	-8.6672279011203344	0	0
2.7015630552549563	-7.1845931031953025	0	0
2.7274449597652084	-7.2811856858242088	0	0
2.5377273122134456	-7.539075612357653	0	0
2.7706644528057143	-8.4084088560178145	0	0
3.1699809471616698	-6.9905680595093278	0	0
3.2199809471616696	-7.0771705998877712	0	0
3.53648729810778	-7.1253756806446598	0	0
3.9864872981077792	-7.9047985440506521	0	0
4.4690190528383287	-6.2405680595093278	0	0
4.5190190528383285	-6.3271705998877712	0	0
4.4025127018922197	-6.6253756806446589	0	0
4.8525127018922181	-7.4047985440506539	0	0
4.871258615594126	-5.9319187873739487	0	0
4.9419692937127806	-6.0026294654926033	0	0
5.2601673452467281	-5.967274126433276	0	0
5.8965634483146188	-6.6036702295011667	0	0
5.931918787373947	-4.8712586155941278	0	0
6.0026294654926016	-4.9419692937127815	0	0
5.9672741264332751	-5.2601673452467281	0	0
6.6036702295011676	-5.8965634483146205	0	0
6.2405680595093269	-4.4690190528383305	0	0
6.3271705998877703	-4.5190190528383303	0	0
6.6253756806446589	-4.4025127018922205	0	0
7.404798544050653	-4.8525127018922216	0	0
6.9905680595093269	-3.1699809471616729	0	0
7.0771705998877703	-3.2199809471616723	0	0
7.125375680644658	-3.5364872981077822	0	0
7.904798544050653	-3.9864872981077824	0	0
7.1845931031953025	-2.7015630552549594	0	0
7.2811856858242088	-2.727444959765212	0	0
7.539075612357653	-2.5377273122134483	0	0
8.4084088560178127	-2.7706644528057165	0	0
7.5728216708490832	-1.2526743158213569	0	0
7.6694142534779903	-1.2785562203316085	0	0
7.7978946574601737	-1.5718014859243801	0	0
8.6672279011203344	-1.8047386265166483	0	0
7.6390000000000011	-0.75000000000000266	0	0
7.7390000000000008	-0.75000000000000266	0	0
7.9390000000000018	-0.50000000000000133	0	0
8.8389999999999986	-0.500000000000002	0	0
7.6390000000000011	0.74999999999999734	0	0
7.7390000000000008	0.74999999999999778	0	0
7.9390000000000018	0.49999999999999811	0	0
8.8390000000000004	0.49999999999999711	0	0
7.5728216708490841	1.2526743158213534	0	0
7.6694142534779903	1.2785562203316054	0	0
7.7978946574601746	1.5718014859243767	0	0
8.6672279011203344	1.8047386265166454	0	0
7.1845931031953025	2.7015630552549559	0	0
7.2811856858242088	2.727444959765208	0	0
7.539075612357653	2.5377273122134452	0	0
8.4084088560178145	2.7706644528057138	0	0
6.9905680595093278	3.1699809471616693	0	0
7.0771705998877712	3.2199809471616692	0	0
7.1253756806446598	3.5364872981077795	0	0
7.9047985440506521	3.9864872981077788	0	0
6.2405680595093278	4.4690190528383287	0	0
6.3271705998877712	4.5190190528383285	0	0
6.6253756806446589	4.4025127018922197	0	0
7.4047985440506539	4.8525127018922172	0	0
5.9319187873739487	4.871258615594126	0	0
6.0026294654926033	4.9419692937127806	0	0
5.967274126433276	5.2601673452467281	0	0
6.6036702295011667	5.8965634483146188	0	0
4.8712586155941278	5.931918787373947	0	0
4.9419692937127815	6.0026294654926016	0	0
5.2601673452467281	5.9672741264332751	0	0
5.8965634483146205	6.6036702295011676	0	0
4.4690190528383305	6.2405680595093269	0	0
4.5190190528383303	6.3271705998877703	0	0
4.4025127018922205	6.6253756806446589	0	0
4.8525127018922225	7.404798544050653	0	0
3.1699809471616733	6.9905680595093269	0	0
3.2199809471616727	7.0771705998877703	0	0
3.5364872981077826	7.125375680644658	0	0
3.9864872981077828	7.904798544050653	0	0
2.7015630552549599	7.1845931031953025	0	0
2.7274449597652124	7.2811856858242088	0	0
2.5377273122134487	7.539075612357653	0	0
2.7706644528057169	8.4084088560178127	0	0
1.2526743158213574	7.5728216708490832	0	0
1.278556220331609	7.6694142534779903	0	0
1.5718014859243805	7.7978946574601737	0	0
1.8047386265166487	8.6672279011203344	0	0
11	0	0	0
-11	0	0	0
-3.4310192719252339	-7.2379628871442581	0	0
-2.6919156459162044	-7.5441096330363298	0	0
-3.8137027042903235	-8.1618424196555441	0	0
-3.0745990782812944	-8.4679891655476158	0	0
1.4407874823099367	7.8793484141024628	0	0
0.64763159321088848	7.9837693678785033	0	0
1.5713136745299883	8.8707932754762719	0	0
0.77815778543094005	8.9752142292523143	0	0
3.431019271925233	7.2379628871442581	0	0
2.6919156459162035	7.5441096330363298	0	0
3.8137027042903227	8.1618424196555441	0	0
3.0745990782812931	8.4679891655476158	0	0
-2.6919156459162035	7.5441096330363298	0	0
-3.431019271925233	7.2379628871442581	0	0
-3.0745990782812931	8.4679891655476158	0	0
-3.8137027042903227	8.1618424196555441	0	0
-0.64763159321088848	7.9837693678785033	0	0
-1.4407874823099367	7.8793484141024628	0	0
-0.77815778543094005	8.9752142292523143	0	0
-1.5713136745299883	8.8707932754762719	0	0
2.6919156459162026	-7.5441096330363298	0	0
3.4310192719252322	-7.2379628871442581	0	0
3.0745990782812922	-8.4679891655476158	0	0
3.8137027042903213	-8.1618424196555441	0	0
0.64763159321088737	-7.9837693678785042	0	0
1.4407874823099358	-7.8793484141024628	0	0
0.77815778543093894	-8.9752142292523143	0	0
1.5713136745299872	-8.8707932754762719	0	0
-1.4407874823099378	-7.8793484141024619	0	0
-0.64763159321088937	-7.9837693678785033	0	0
-1.5713136745299894	-8.8707932754762719	0	0
-0.77815778543094116	-8.9752142292523143	0	0
-0.74999999999998956	7.5000000000000995	0	0
-0.74999999999999423	7.4000000000000652	0	0
-0.49999999999999806	7.2000000000000908	0	0
-0.499999999999998	6.3000000000000789	0	0
0.74999999999999623	7.5000000000000941	0	0
0.74999999999998612	7.4000000000000705	0	0
0.50000000000001088	7.2000000000000766	0	0
0.50000000000000477	6.3000000000000842	0	0
-2.6655872079857206	7.0503294133412266	0	0
-2.6397053034754641	6.9537368307122733	0	0
-2.3464600378827041	6.8252564267301263	0	0
-2.113522897290435	5.9559231830699462	0	0
-1.2166984685521369	7.4385579809949958	0	0
-1.1908165640418815	7.3419653983660602	0	0
-1.3805342115936341	7.0840754718326311	0	0
-1.1475970710013614	6.2147422281724705	0	0
1.2166984685521411	7.4385579809949931	0	0
1.1908165640418766	7.3419653983660575	0	0
1.3805342115936368	7.0840754718326444	0	0
1.1475970710013668	6.2147422281724669	0	0
2.6655872079857277	7.0503294133412142	0	0
2.6397053034754618	6.9537368307122795	0	0
2.3464600378827107	6.8252564267301024	0	0
2.1135228972904425	5.9559231830699479	0	0
-5.833630944789074	4.7729707730092699	0	0
-5.7629202666704016	4.702260094890593	0	0
-5.4447222151364789	4.7376154339499337	0	0
-4.8083261120685776	4.1012193308820297	0	0
-4.7729707730092672	5.8336309447890828	0	0
-4.7022600948905957	5.7629202666704025	0	0
-4.7376154339499168	5.4447222151364754	0	0
-4.1012193308820306	4.8083261120685838	0	0
-6.8701905283833664	3.1004809471617367	0	0
-6.7835879880048946	3.0504809471617071	0	0
-6.4853829072480398	3.1669872981078226	0	0
-5.7059600438420279	2.7169872981078189	0	0
-6.1201905283833753	4.3995190528383725	0	0
-6.0335879880049035	4.3495190528383523	0	0
-5.9853829072480185	4.0330127018922637	0	0
-5.2059600438420333	3.5830127018922675	0	0
-4.3995190528383672	6.1201905283833788	0	0
-4.3495190528383532	6.0335879880048999	0	0
-4.0330127018922655	5.9853829072480425	0	0
-3.5830127018922573	5.205960043842035	0	0
-3.1004809471617265	6.8701905283833735	0	0
-3.0504809471617182	6.7835879880049026	0	0
-3.1669872981078151	6.48538290724803	0	0
-2.7169872981078171	5.7059600438420368	0	0
-7.5000000000000995	-0.74999999999998956	0	0
-7.4000000000000599	-0.74999999999999367	0	0
-7.2000000000000908	-0.49999999999999806	0	0
-6.3000000000000789	-0.49999999999999717	0	0
-7.500000000000095	0.749999999999994	0	0
-7.4000000000000679	0.74999999999998546	0	0
-7.2000000000000766	0.50000000000001088	0	0
-6.3000000000000842	0.50000000000000477	0	0
-7.0503294133412266	-2.6655872079857206	0	0
-6.9537368307122733	-2.6397053034754641	0	0
-6.825256426730129	-2.3464600378827059	0	0
-5.9559231830699471	-2.1135228972904336	0	0
-7.4385579809949958	-1.2166984685521365	0	0
-7.3419653983660602	-1.1908165640418815	0	0
-7.0840754718326311	-1.3805342115936341	0	0
-6.2147422281724705	-1.1475970710013614	0	0
-7.4385579809949931	1.2166984685521411	0	0
-7.3419653983660575	1.1908165640418766	0	0
-7.0840754718326444	1.3805342115936368	0	0
-6.2147422281724669	1.1475970710013668	0	0
-7.0503294133412142	2.6655872079857277	0	0
-6.9537368307122804	2.6397053034754627	0	0
-6.8252564267301024	2.3464600378827107	0	0
-5.9559231830699506	2.1135228972904434	0	0
-4.7729707730092699	-5.833630944789074	0	0
-4.702260094890593	-5.7629202666704016	0	0
-4.7376154339499337	-5.4447222151364789	0	0
-4.1012193308820297	-4.8083261120685776	0	0
-5.8336309447890828	-4.7729707730092672	0	0
-5.7629202666704025	-4.7022600948905957	0	0
-5.4447222151364754	-4.7376154339499168	0	0
-4.8083261120685838	-4.1012193308820306	0	0
-3.1004809471617367	-6.8701905283833664	0	0
-3.0504809471617045	-6.7835879880048928	0	0
-3.1669872981078226	-6.4853829072480398	0	0
-2.7169872981078216	-5.7059600438420262	0	0
-4.3995190528383725	-6.1201905283833753	0	0
-4.3495190528383523	-6.0335879880049035	0	0
-4.0330127018922637	-5.9853829072480185	0	0
-3.5830127018922657	-5.2059600438420297	0	0
-6.1201905283833788	-4.3995190528383672	0	0
-6.0335879880048999	-4.3495190528383532	0	0
-5.9853829072480425	-4.0330127018922655	0	0
-5.205960043842035	-3.5830127018922573	0	0
-6.8701905283833726	-3.1004809471617238	0	0
-6.7835879880049026	-3.0504809471617182	0	0
-6.48538290724803	-3.1669872981078151	0	0
-5.7059600438420368	-2.7169872981078171	0	0
0.74999999999998779	-7.5000000000000995	0	0
0.74999999999999367	-7.4000000000000599	0	0
0.49999999999999806	-7.2000000000000908	0	0
0.49999999999999717	-6.3000000000000789	0	0
-0.749999999999994	-7.500000000000095	0	0
-0.74999999999998546	-7.4000000000000679	0	0
-0.50000000000001088	-7.2000000000000766	0	0
-0.50000000000000477	-6.3000000000000842	0	0
2.6655872079857219	-7.0503294133412213	0	0
2.6397053034754663	-6.9537368307122751	0	0
2.3464600378827036	-6.8252564267301263	0	0
2.1135228972904336	-5.9559231830699471	0	0
1.2166984685521365	-7.4385579809949958	0	0
1.1908165640418815	-7.3419653983660602	0	0
1.3805342115936301	-7.0840754718326284	0	0
1.1475970710013614	-6.2147422281724705	0	0
-1.2166984685521411	-7.4385579809949931	0	0
-1.190816564041876	-7.3419653983660549	0	0
-1.3805342115936372	-7.0840754718326462	0	0
-1.1475970710013685	-6.2147422281724678	0	0
-2.6655872079857277	-7.0503294133412142	0	0
-2.6397053034754618	-6.9537368307122795	0	0
-2.3464600378827107	-6.8252564267301024	0	0
-2.1135228972904434	-5.9559231830699506	0	0
5.833630944789074	-4.7729707730092725	0	0
5.7629202666703963	-4.7022600948905842	0	0
5.4447222151364816	-4.7376154339499381	0	0
4.8083261120685759	-4.1012193308820279	0	0
4.7729707730092672	-5.833630944789082	0	0
4.7022600948905913	-5.7629202666704007	0	0
4.7376154339499168	-5.4447222151364816	0	0
4.1012193308820288	-4.8083261120685874	0	0
6.8701905283833664	-3.1004809471617367	0	0
6.7835879880048928	-3.0504809471617045	0	0
6.4853829072480398	-3.1669872981078226	0	0
5.7059600438420324	-2.7169872981078211	0	0
6.1201905283833726	-4.3995190528383725	0	0
6.0335879880049017	-4.3495190528383523	0	0
5.9853829072480185	-4.0330127018922637	0	0
5.2059600438420297	-3.5830127018922657	0	0
4.3995190528383654	-6.1201905283833771	0	0
4.3495190528383514	-6.0335879880049008	0	0
4.0330127018922628	-5.9853829072480442	0	0
3.5830127018922573	-5.205960043842035	0	0
3.1004809471617247	-6.8701905283833753	0	0
3.0504809471617071	-6.7835879880048964	0	0
3.1669872981078089	-6.4853829072480247	0	0
2.7169872981078167	-5.7059600438420368	0	0
7.5000000000000995	0.74999999999998779	0	0
7.400000000000059	0.74999999999999267	0	0
7.200000000000097	0.49999999999999534	0	0
6.3000000000000771	0.49999999999999778	0	0
7.5000000000000941	-0.74999999999999711	0	0
7.4000000000000679	-0.74999999999998812	0	0
7.2000000000000739	-0.50000000000000888	0	0
6.3000000000000789	-0.50000000000000788	0	0
7.0503294133412213	2.6655872079857219	0	0
6.9537368307122751	2.6397053034754663	0	0
6.8252564267301263	2.3464600378827036	0	0
5.9559231830699462	2.1135228972904336	0	0
7.4385579809949949	1.2166984685521356	0	0
7.3419653983660602	1.1908165640418815	0	0
7.0840754718326293	1.3805342115936265	0	0
6.2147422281724713	1.1475970710013592	0	0
7.4385579809949967	-1.2166984685521451	0	0
7.3419653983660531	-1.190816564041874	0	0
7.0840754718326471	-1.3805342115936359	0	0
6.2147422281724678	-1.1475970710013685	0	0
7.0503294133412107	-2.6655872079857312	0	0
6.9537368307122769	-2.6397053034754627	0	0
6.8252564267301024	-2.3464600378827107	0	0
5.9559231830699497	-2.1135228972904434	0	0
4.7729707730092725	5.833630944789074	0	0
4.7022600948905842	5.7629202666703963	0	0
4.7376154339499381	5.4447222151364816	0	0
4.1012193308820279	4.8083261120685759	0	0
5.833630944789082	4.7729707730092672	0	0
5.7629202666704007	4.7022600948905913	0	0
5.4447222151364816	4.7376154339499168	0	0
4.8083261120685874	4.1012193308820288	0	0
3.1004809471617367	6.8701905283833664	0	0
3.0504809471617045	6.7835879880048928	0	0
3.1669872981078271	6.4853829072480353	0	0
2.7169872981078211	5.7059600438420315	0	0
4.3995190528383725	6.1201905283833726	0	0
4.3495190528383523	6.0335879880049017	0	0
4.0330127018922637	5.9853829072480185	0	0
3.5830127018922666	5.2059600438420306	0	0
6.1201905283833771	4.3995190528383654	0	0
6.0335879880049008	4.3495190528383514	0	0
5.9853829072480442	4.0330127018922628	0	0
5.205960043842035	3.5830127018922573	0	0
6.8701905283833753	3.1004809471617247	0	0
6.7835879880048964	3.0504809471617071	0	0
6.4853829072480247	3.1669872981078089	0	0
5.7059600438420368	2.7169872981078167	0	0
-5.8969777412941902	2.2261297173978325	0	0
-5.7439043683481499	2.5956815304023571	0	0
-6.8208572738054869	2.6088131497629257	0	0
-6.667783900859428	2.9783649627674524	0	0
6.2199973882110635	1.0206039832610958	0	0
6.2722078650990882	0.62402603871156015	0	0
7.2114422495848833	1.1511301754811503	0	0
7.2636527264728894	0.75455223093160939	0	0
5.7439043683481525	2.5956815304023495	0	0
5.8969777412941973	2.2261297173978276	0	0
6.6677839008594439	2.9783649627674484	0	0
6.8208572738054727	2.6088131497629043	0	0
6.2722078650990829	-0.62402603871157236	0	0
6.2199973882110671	-1.0206039832611038	0	0
7.2636527264729054	-0.75455223093162116	0	0
7.2114422495848691	-1.1511301754811618	0	0
5.8969777412941902	-2.2261297173978325	0	0
5.7439043683481525	-2.5956815304023584	0	0
6.820857273805486	-2.6088131497629248	0	0
6.667783900859428	-2.9783649627674489	0	0
-6.2199973882110617	-1.0206039832610945	0	0
-6.2722078650990865	-0.62402603871155815	0	0
-7.2114422495848833	-1.1511301754811503	0	0
-7.2636527264728903	-0.75455223093160773	0	0
-6.2722078650990873	0.62402603871157658	0	0
-6.219997388211068	1.0206039832611031	0	0
-7.2636527264729063	0.75455223093161938	0	0
-7.2114422495848665	1.1511301754811607	0	0
-5.7439043683481525	-2.5956815304023495	0	0
-5.8969777412941973	-2.2261297173978263	0	0
-6.6677839008594431	-2.9783649627674458	0	0
-6.8208572738054718	-2.608813149762903	0	0
[NumSegments] = 399
0	1	-1	0	0	0
1	2	-1	0	0	0
2	3	-1	0	0	0
4	5	-1	0	0	0
6	7	-1	0	0	0
5	6	-1	0	0	0
4	0	-1	0	0	0
8	9	-1	0	0	0
9	10	-1	0	0	0
10	11	-1	0	0	0
12	13	-1	0	0	0
14	15	-1	0	0	0
13	14	-1	0	0	0
12	8	-1	0	0	0
16	17	-1	0	0	0
17	18	-1	0	0	0
18	19	-1	0	0	0
20	21	-1	0	0	0
22	23	-1	0	0	0
21	22	-1	0	0	0
20	16	-1	0	0	0
24	25	-1	0	0	0
25	26	-1	0	0	0
26	27	-1	0	0	0
28	29	-1	0	0	0
30	31	-1	0	0	0
29	30	-1	0	0	0
28	24	-1	0	0	0
32	33	-1	0	0	0
33	34	-1	0	0	0
34	35	-1	0	0	0
36	37	-1	0	0	0
38	39	-1	0	0	0
37	38	-1	0	0	0
36	32	-1	0	0	0
40	41	-1	0	0	0
41	42	-1	0	0	0
42	43	-1	0	0	0
44	45	-1	0	0	0
46	47	-1	0	0	0
45	46	-1	0	0	0
44	40	-1	0	0	0
48	49	-1	0	0	0
49	50	-1	0	0	0
50	51	-1	0	0	0
52	53	-1	0	0	0
54	55	-1	0	0	0
53	54	-1	0	0	0
52	48	-1	0	0	0
56	57	-1	0	0	0
57	58	-1	0	0	0
58	59	-1	0	0	0
60	61	-1	0	0	0
62	63	-1	0	0	0
61	62	-1	0	0	0
60	56	-1	0	0	0
64	65	-1	0	0	0
65	66	-1	0	0	0
66	67	-1	0	0	0
68	69	-1	0	0	0
70	71	-1	0	0	0
69	70	-1	0	0	0
68	64	-1	0	0	0
72	73	-1	0	0	0
73	74	-1	0	0	0
74	75	-1	0	0	0
76	77	-1	0	0	0
78	79	-1	0	0	0
77	78	-1	0	0	0
76	72	-1	0	0	0
80	81	-1	0	0	0
81	82	-1	0	0	0
82	83	-1	0	0	0
84	85	-1	0	0	0
86	87	-1	0	0	0
85	86	-1	0	0	0
84	80	-1	0	0	0
88	89	-1	0	0	0
89	90	-1	0	0	0
90	91	-1	0	0	0
92	93	-1	0	0	0
94	95	-1	0	0	0
93	94	-1	0	0	0
92	88	-1	0	0	0
96	97	-1	0	0	0
97	98	-1	0	0	0
98	99	-1	0	0	0
100	101	-1	0	0	0
102	103	-1	0	0	0
101	102	-1	0	0	0
100	96	-1	0	0	0
104	105	-1	0	0	0
105	106	-1	0	0	0
106	107	-1	0	0	0
108	109	-1	0	0	0
110	111	-1	0	0	0
109	110	-1	0	0	0
108	104	-1	0	0	0
112	113	-1	0	0	0
113	114	-1	0	0	0
114	115	-1	0	0	0
116	117	-1	0	0	0
118	119	-1	0	0	0
117	118	-1	0	0	0
116	112	-1	0	0	0
120	121	-1	0	0	0
121	122	-1	0	0	0
122	123	-1	0	0	0
124	125	-1	0	0	0
126	127	-1	0	0	0
125	126	-1	0	0	0
124	120	-1	0	0	0
128	129	-1	0	0	0
129	130	-1	0	0	0
130	131	-1	0	0	0
132	133	-1	0	0	0
134	135	-1	0	0	0
133	134	-1	0	0	0
132	128	-1	0	0	0
136	137	-1	0	0	0
137	138	-1	0	0	0
138	139	-1	0	0	0
140	141	-1	0	0	0
142	143	-1	0	0	0
141	142	-1	0	0	0
140	136	-1	0	0	0
144	145	-1	0	0	0
145	146	-1	0	0	0
146	147	-1	0	0	0
148	149	-1	0	0	0
150	151	-1	0	0	0
149	150	-1	0	0	0
148	144	-1	0	0	0
152	153	-1	0	0	0
153	154	-1	0	0	0
154	155	-1	0	0	0
156	157	-1	0	0	0
158	159	-1	0	0	0
157	158	-1	0	0	0
156	152	-1	0	0	0
160	161	-1	0	0	0
161	162	-1	0	0	0
162	163	-1	0	0	0
164	165	-1	0	0	0
166	167	-1	0	0	0
165	166	-1	0	0	0
164	160	-1	0	0	0
168	169	-1	0	0	0
169	170	-1	0	0	0
170	171	-1	0	0	0
172	173	-1	0	0	0
174	175	-1	0	0	0
173	174	-1	0	0	0
172	168	-1	0	0	0
176	177	-1	0	0	0
177	178	-1	0	0	0
178	179	-1	0	0	0
180	181	-1	0	0	0
182	183	-1	0	0	0
181	182	-1	0	0	0
180	176	-1	0	0	0
184	185	-1	0	0	0
185	186	-1	0	0	0
186	187	-1	0	0	0
188	189	-1	0	0	0
190	191	-1	0	0	0
189	190	-1	0	0	0
188	184	-1	0	0	0
195	194	-1	0	0	0
197	195	-1	0	0	0
196	194	-1	0	0	0
197	196	-1	0	0	0
199	198	-1	0	0	0
201	199	-1	0	0	0
200	198	-1	0	0	0
201	200	-1	0	0	0
203	202	-1	0	0	0
205	203	-1	0	0	0
204	202	-1	0	0	0
205	204	-1	0	0	0
207	206	-1	0	0	0
209	207	-1	0	0	0
208	206	-1	0	0	0
209	208	-1	0	0	0
211	210	-1	0	0	0
213	211	-1	0	0	0
212	210	-1	0	0	0
213	212	-1	0	0	0
215	214	-1	0	0	0
217	215	-1	0	0	0
216	214	-1	0	0	0
217	216	-1	0	0	0
219	218	-1	0	0	0
221	219	-1	0	0	0
220	218	-1	0	0	0
221	220	-1	0	0	0
223	222	-1	0	0	0
225	223	-1	0	0	0
224	222	-1	0	0	0
225	224	-1	0	0	0
226	227	-1	0	0	0
227	228	-1	0	0	0
228	229	-1	0	0	0
230	231	-1	0	0	0
232	233	-1	0	0	0
231	232	-1	0	0	0
234	235	-1	0	0	0
235	236	-1	0	0	0
236	237	-1	0	0	0
238	239	-1	0	0	0
240	241	-1	0	0	0
239	240	-1	0	0	0
238	234	-1	0	0	0
242	243	-1	0	0	0
243	244	-1	0	0	0
244	245	-1	0	0	0
246	247	-1	0	0	0
248	249	-1	0	0	0
247	248	-1	0	0	0
246	242	-1	0	0	0
250	251	-1	0	0	0
251	252	-1	0	0	0
252	253	-1	0	0	0
254	255	-1	0	0	0
256	257	-1	0	0	0
255	256	-1	0	0	0
254	250	-1	0	0	0
258	259	-1	0	0	0
259	260	-1	0	0	0
260	261	-1	0	0	0
262	263	-1	0	0	0
264	265	-1	0	0	0
263	264	-1	0	0	0
262	258	-1	0	0	0
266	267	-1	0	0	0
267	268	-1	0	0	0
268	269	-1	0	0	0
270	271	-1	0	0	0
272	273	-1	0	0	0
271	272	-1	0	0	0
270	266	-1	0	0	0
274	275	-1	0	0	0
275	276	-1	0	0	0
276	277	-1	0	0	0
278	279	-1	0	0	0
280	281	-1	0	0	0
279	280	-1	0	0	0
278	274	-1	0	0	0
282	283	-1	0	0	0
283	284	-1	0	0	0
284	285	-1	0	0	0
286	287	-1	0	0	0
288	289	-1	0	0	0
287	288	-1	0	0	0
286	282	-1	0	0	0
290	291	-1	0	0	0
291	292	-1	0	0	0
292	293	-1	0	0	0
294	295	-1	0	0	0
296	297	-1	0	0	0
295	296	-1	0	0	0
294	290	-1	0	0	0
298	299	-1	0	0	0
299	300	-1	0	0	0
300	301	-1	0	0	0
302	303	-1	0	0	0
304	305	-1	0	0	0
303	304	-1	0	0	0
302	298	-1	0	0	0
306	307	-1	0	0	0
307	308	-1	0	0	0
308	309	-1	0	0	0
310	311	-1	0	0	0
312	313	-1	0	0	0
311	312	-1	0	0	0
310	306	-1	0	0	0
314	315	-1	0	0	0
315	316	-1	0	0	0
316	317	-1	0	0	0
318	319	-1	0	0	0
320	321	-1	0	0	0
319	320	-1	0	0	0
318	314	-1	0	0	0
322	323	-1	0	0	0
323	324	-1	0	0	0
324	325	-1	0	0	0
326	327	-1	0	0	0
328	329	-1	0	0	0
327	328	-1	0	0	0
326	322	-1	0	0	0
330	331	-1	0	0	0
331	332	-1	0	0	0
332	333	-1	0	0	0
334	335	-1	0	0	0
336	337	-1	0	0	0
335	336	-1	0	0	0
334	330	-1	0	0	0
338	339	-1	0	0	0
339	340	-1	0	0	0
340	341	-1	0	0	0
342	343	-1	0	0	0
344	345	-1	0	0	0
343	344	-1	0	0	0
342	338	-1	0	0	0
346	347	-1	0	0	0
347	348	-1	0	0	0
348	349	-1	0	0	0
350	351	-1	0	0	0
352	353	-1	0	0	0
351	352	-1	0	0	0
350	346	-1	0	0	0
354	355	-1	0	0	0
355	356	-1	0	0	0
356	357	-1	0	0	0
358	359	-1	0	0	0
360	361	-1	0	0	0
359	360	-1	0	0	0
358	354	-1	0	0	0
362	363	-1	0	0	0
363	364	-1	0	0	0
364	365	-1	0	0	0
366	367	-1	0	0	0
368	369	-1	0	0	0
367	368	-1	0	0	0
366	362	-1	0	0	0
370	371	-1	0	0	0
371	372	-1	0	0	0
372	373	-1	0	0	0
374	375	-1	0	0	0
376	377	-1	0	0	0
375	376	-1	0	0	0
374	370	-1	0	0	0
378	379	-1	0	0	0
379	380	-1	0	0	0
380	381	-1	0	0	0
382	383	-1	0	0	0
384	385	-1	0	0	0
383	384	-1	0	0	0
382	378	-1	0	0	0
386	387	-1	0	0	0
387	388	-1	0	0	0
388	389	-1	0	0	0
390	391	-1	0	0	0
392	393	-1	0	0	0
391	392	-1	0	0	0
390	386	-1	0	0	0
394	395	-1	0	0	0
395	396	-1	0	0	0
396	397	-1	0	0	0
398	399	-1	0	0	0
400	401	-1	0	0	0
399	400	-1	0	0	0
398	394	-1	0	0	0
402	403	-1	0	0	0
403	404	-1	0	0	0
404	405	-1	0	0	0
406	407	-1	0	0	0
408	409	-1	0	0	0
407	408	-1	0	0	0
406	402	-1	0	0	0
410	411	-1	0	0	0
411	412	-1	0	0	0
412	413	-1	0	0	0
414	415	-1	0	0	0
416	417	-1	0	0	0
415	416	-1	0	0	0
414	410	-1	0	0	0
418	420	-1	0	0	0
419	421	-1	0	0	0
421	420	-1	0	0	0
418	419	-1	0	0	0
422	424	-1	0	0	0
423	425	-1	0	0	0
425	424	-1	0	0	0
422	423	-1	0	0	0
426	428	-1	0	0	0
427	429	-1	0	0	0
429	428	-1	0	0	0
426	427	-1	0	0	0
430	432	-1	0	0	0
431	433	-1	0	0	0
433	432	-1	0	0	0
430	431	-1	0	0	0
434	436	-1	0	0	0
435	437	-1	0	0	0
437	436	-1	0	0	0
434	435	-1	0	0	0
438	440	-1	0	0	0
439	441	-1	0	0	0
441	440	-1	0	0	0
438	439	-1	0	0	0
442	444	-1	0	0	0
443	445	-1	0	0	0
445	444	-1	0	0	0
442	443	-1	0	0	0
446	448	-1	0	0	0
447	449	-1	0	0	0
449	448	-1	0	0	0
446	447	-1	0	0	0
[NumArcSegments] = 51
191	3	180	1	0	0	0	1
183	187	180	1	0	0	0	1
175	179	180	1	0	0	0	1
167	171	180	1	0	0	0	1
159	163	180	1	0	0	0	1
151	155	180	1	0	0	0	1
143	147	180	1	0	0	0	1
135	139	180	1	0	0	0	1
127	131	180	1	0	0	0	1
119	123	180	1	0	0	0	1
111	115	180	1	0	0	0	1
103	107	180	1	0	0	0	1
95	99	180	1	0	0	0	1
87	91	180	1	0	0	0	1
79	83	180	1	0	0	0	1
71	75	180	1	0	0	0	1
63	67	180	1	0	0	0	1
55	59	180	1	0	0	0	1
47	51	180	1	0	0	0	1
39	43	180	1	0	0	0	1
31	35	180	1	0	0	0	1
23	27	180	1	0	0	0	1
15	19	180	1	0	0	0	1
7	11	180	1	0	0	0	1
193	192	180	1	1	0	0	1
192	193	180	1	1	0	0	1
241	229	180	1	0	0	0	1
233	245	180	1	0	0	0	1
249	405	180	1	0	0	0	1
409	397	180	1	0	0	0	1
401	413	180	1	0	0	0	1
417	381	180	1	0	0	0	1
385	373	180	1	0	0	0	1
377	389	180	1	0	0	0	1
393	357	180	1	0	0	0	1
361	349	180	1	0	0	0	1
353	365	180	1	0	0	0	1
369	333	180	1	0	0	0	1
337	325	180	1	0	0	0	1
329	341	180	1	0	0	0	1
345	309	180	1	0	0	0	1
313	301	180	1	0	0	0	1
305	317	180	1	0	0	0	1
321	285	180	1	0	0	0	1
289	277	180	1	0	0	0	1
281	293	180	1	0	0	0	1
297	261	180	1	0	0	0	1
265	253	180	1	0	0	0	1
257	269	180	1	0	0	0	1
273	237	180	1	0	0	0	1
230	226	7.5	1	0	0	0	1
[NumHoles] = 0
[NumBlockLabels] = 19
-3.29	7.8600000000000003	3	-1	1	0	0	30	0
-1.1699999999999999	8.3800000000000008	3	-1	1	0	0	30	0
1.05	8.4000000000000004	3	-1	1	0	0	30	0
3.3100000000000001	7.8200000000000003	3	-1	1	0	0	30	0
-5.25	8.9399999999999995	1	-1	0	0	0	1	0
8.3900000000000006	1.1599999999999999	2	-1	0	0	0	1	0
-3.29	-7.8600000000000003	3	-1	1	0	0	-30	0
-1.1499999999999999	-8.4399999999999995	3	-1	1	0	0	-30	0
1.1899999999999999	-8.3599999999999994	3	-1	1	0	0	-30	0
3.3300000000000001	-7.8799999999999999	3	-1	1	0	0	-30	0
-0.35000000000000303	0.56000000000000616	1	-1	0	0	0	1	0
-6.3600000000000581	2.6000000000000254	3	-1	2	0	0	20	0
-6.7600000000000655	0.88000000000001033	3	-1	2	0	0	20	0
-6.7600000000000877	-0.89000000000001844	3	-1	2	0	0	20	0
-6.3200000000000633	-2.6300000000000119	3	-1	2	0	0	20	0
6.2200000000000655	-2.6100000000000252	3	-1	2	0	0	-20	0
6.7400000000000615	-0.84000000000001307	3	-1	2	0	0	-20	0
6.6900000000000732	0.91000000000000503	3	-1	2	0	0	-20	0
6.30000000000007	2.6000000000000187	3	-1	2	0	0	-20	0
