[Format]      =  4.0
[Frequency]   =  0
[Precision]   =  1e-008
[MinAngle]    =  30
[DoSmartMesh] =  1
[Depth]       =  20
[LengthUnits] =  centimeters
[ProblemType] =  planar
[Coordinates] =  cartesian
[ACSolver]    =  0
[PrevType]    =  0
[PrevSoln]    =  ""
[Comment]     =  "Add comments here."
[PointProps]   = 0
[BdryProps]   = 1
  <BeginBdry>
    <BdryName> = "Boundary"
    <BdryType> = 0
    <A_0> = 0
    <A_1> = 0
    <A_2> = 0
    <Phi> = 0
    <c0> = 0
    <c0i> = 0
    <c1> = 0
    <c1i> = 0
    <Mu_ssd> = 0
    <Sigma_ssd> = 0
    <innerangle> = 0
    <outerangle> = 0
  <EndBdry>
[BlockProps]  = 3
  <BeginBlock>
    <BlockName> = "Ferro"
    <Mu_x> = 2000
    <Mu_y> = 2000
    <H_c> = 0
    <H_cAngle> = 0
    <J_re> = 0
    <J_im> = 0
    <Sigma> = 0
    <d_lam> = 0
    <Phi_h> = 0
    <Phi_hx> = 0
    <Phi_hy> = 0
    <LamType> = 0
    <LamFill> = 1
    <NStrands> = 0
    <WireD> = 0
    <BHPoints> = 0
  <EndBlock>
  <BeginBlock>
    <BlockName> = "Air"
    <Mu_x> = 1
    <Mu_y> = 1
    <H_c> = 0
    <H_cAngle> = 0
    <J_re> = 0
    <J_im> = 0
    <Sigma> = 0
    <d_lam> = 0
    <Phi_h> = 0
    <Phi_hx> = 0
    <Phi_hy> = 0
    <LamType> = 0
    <LamFill> = 1
    <NStrands> = 0
    <WireD> = 0
    <BHPoints> = 0
  <EndBlock>
  <BeginBlock>
    <BlockName> = "16 AWG"
    <Mu_x> = 1
    <Mu_y> = 1
    <H_c> = 0
    <H_cAngle> = 0
    <J_re> = 0
    <J_im> = 0
    <Sigma> = 58
    <d_lam> = 0
    <Phi_h> = 0
    <Phi_hx> = 0
    <Phi_hy> = 0
    <LamType> = 3
    <LamFill> = 1
    <NStrands> = 1
    <WireD> = 1.2911827701741401
    <BHPoints> = 0
  <EndBlock>
[CircuitProps]  = 4
  <BeginCircuit>
    <CircuitName> = "EstatorA"
    <TotalAmps_re> = 0
    <TotalAmps_im> = 0
    <CircuitType> = 1
  <EndCircuit>
  <BeginCircuit>
    <CircuitName> = "Rotor"
    <TotalAmps_re> = 3
    <TotalAmps_im> = 0
    <CircuitType> = 1
  <EndCircuit>
  <BeginCircuit>
    <CircuitName> = "EstatorB"
    <TotalAmps_re> = 0
    <TotalAmps_im> = 0
    <CircuitType> = 1
  <EndCircuit>
  <BeginCircuit>
    <CircuitName> = "EstatorC"
    <TotalAmps_re> = 0
    <TotalAmps_im> = 0
    <CircuitType> = 1
  <EndCircuit>
[NumPoints] = 313
0.75	7.6390000000000002	0	0
0.75	7.7389999999999999	0	0
0.5	7.9390000000000001	0	0
0.5	8.8390000000000004	0	0
-0.75	7.6390000000000002	0	0
-0.75	7.7389999999999999	0	0
-0.5	7.9390000000000001	0	0
-0.5	8.8390000000000004	0	0
-1.2526743158213547	7.5728216708490841	0	0
-1.2785562203316068	7.6694142534779903	0	0
-1.5718014859243781	7.7978946574601746	0	0
-1.8047386265166467	8.6672279011203344	0	0
-2.7015630552549572	7.1845931031953025	0	0
-2.7274449597652093	7.2811856858242088	0	0
-2.5377273122134465	7.539075612357653	0	0
-2.7706644528057152	8.4084088560178145	0	0
-3.1699809471616707	6.9905680595093278	0	0
-3.2199809471616705	7.0771705998877712	0	0
-3.5364872981077808	7.1253756806446598	0	0
-3.9864872981077801	7.9047985440506521	0	0
-4.4690190528383287	6.2405680595093278	0	0
-4.5190190528383285	6.3271705998877712	0	0
-4.4025127018922197	6.6253756806446589	0	0
-4.8525127018922198	7.4047985440506539	0	0
-4.871258615594126	5.9319187873739487	0	0
-4.9419692937127806	6.0026294654926033	0	0
-5.2601673452467281	5.967274126433276	0	0
-5.8965634483146188	6.6036702295011667	0	0
-5.931918787373947	4.8712586155941278	0	0
-6.0026294654926016	4.9419692937127815	0	0
-5.9672741264332751	5.2601673452467281	0	0
-6.6036702295011676	5.8965634483146205	0	0
-6.2405680595093269	4.4690190528383305	0	0
-6.3271705998877703	4.5190190528383303	0	0
-6.6253756806446589	4.4025127018922205	0	0
-7.404798544050653	4.8525127018922198	0	0
-6.9905680595093269	3.169980947161672	0	0
-7.0771705998877703	3.2199809471616714	0	0
-7.125375680644658	3.5364872981077813	0	0
-7.904798544050653	3.9864872981077815	0	0
-7.1845931031953025	2.7015630552549585	0	0
-7.2811856858242088	2.7274449597652111	0	0
-7.539075612357653	2.5377273122134474	0	0
-8.4084088560178127	2.7706644528057156	0	0
-7.5728216708490832	1.252674315821356	0	0
-7.6694142534779903	1.2785562203316077	0	0
-7.7978946574601737	1.5718014859243792	0	0
-8.6672279011203344	1.8047386265166474	0	0
-7.6390000000000011	0.75000000000000178	0	0
-7.7390000000000008	0.75000000000000178	0	0
-7.9390000000000018	0.50000000000000044	0	0
-8.8389999999999986	0.50000000000000089	0	0
-7.6390000000000011	-0.74999999999999822	0	0
-7.7390000000000008	-0.74999999999999867	0	0
-7.9390000000000018	-0.49999999999999911	0	0
-8.8390000000000004	-0.49999999999999822	0	0
-7.5728216708490841	-1.2526743158213542	0	0
-7.6694142534779903	-1.2785562203316063	0	0
-7.7978946574601746	-1.5718014859243776	0	0
-8.6672279011203344	-1.8047386265166463	0	0
-7.1845931031953025	-2.7015630552549568	0	0
-7.2811856858242088	-2.7274449597652088	0	0
-7.539075612357653	-2.5377273122134461	0	0
-8.4084088560178145	-2.7706644528057147	0	0
-6.9905680595093278	-3.1699809471616702	0	0
-7.0771705998877712	-3.21998094716167	0	0
-7.1253756806446598	-3.5364872981077804	0	0
-7.9047985440506521	-3.9864872981077797	0	0
-6.2405680595093278	-4.4690190528383287	0	0
-6.3271705998877712	-4.5190190528383285	0	0
-6.6253756806446589	-4.4025127018922197	0	0
-7.4047985440506539	-4.8525127018922189	0	0
-5.9319187873739487	-4.871258615594126	0	0
-6.0026294654926033	-4.9419692937127806	0	0
-5.967274126433276	-5.2601673452467281	0	0
-6.6036702295011667	-5.8965634483146188	0	0
-4.8712586155941278	-5.931918787373947	0	0
-4.9419692937127815	-6.0026294654926016	0	0
-5.2601673452467281	-5.9672741264332751	0	0
-5.8965634483146205	-6.6036702295011676	0	0
-4.4690190528383305	-6.2405680595093269	0	0
-4.5190190528383303	-6.3271705998877703	0	0
-4.4025127018922205	-6.6253756806446589	0	0
-4.8525127018922207	-7.404798544050653	0	0
-3.1699809471616724	-6.9905680595093269	0	0
-3.2199809471616718	-7.0771705998877703	0	0
-3.5364872981077817	-7.125375680644658	0	0
-3.9864872981077819	-7.904798544050653	0	0
-2.701563055254959	-7.1845931031953025	0	0
-2.7274449597652115	-7.2811856858242088	0	0
-2.5377273122134478	-7.539075612357653	0	0
-2.770664452805716	-8.4084088560178127	0	0
-1.2526743158213565	-7.5728216708490832	0	0
-1.2785562203316081	-7.6694142534779903	0	0
-1.5718014859243796	-7.7978946574601737	0	0
-1.8047386265166478	-8.6672279011203344	0	0
-0.75000000000000222	-7.6390000000000011	0	0
-0.75000000000000222	-7.7390000000000008	0	0
-0.50000000000000089	-7.9390000000000018	0	0
-0.50000000000000144	-8.8389999999999986	0	0
0.74999999999999778	-7.6390000000000011	0	0
0.74999999999999822	-7.7390000000000008	0	0
0.49999999999999861	-7.9390000000000018	0	0
0.49999999999999767	-8.8390000000000004	0	0
1.2526743158213538	-7.5728216708490841	0	0
1.2785562203316059	-7.6694142534779903	0	0
1.5718014859243772	-7.7978946574601746	0	0
1.8047386265166458	-8.6672279011203344	0	0
2.7015630552549563	-7.1845931031953025	0	0
2.7274449597652084	-7.2811856858242088	0	0
2.5377273122134456	-7.539075612357653	0	0
2.7706644528057143	-8.4084088560178145	0	0
3.1699809471616698	-6.9905680595093278	0	0
3.2199809471616696	-7.0771705998877712	0	0
3.53648729810778	-7.1253756806446598	0	0
3.9864872981077792	-7.9047985440506521	0	0
4.4690190528383287	-6.2405680595093278	0	0
4.5190190528383285	-6.3271705998877712	0	0
4.4025127018922197	-6.6253756806446589	0	0
4.8525127018922181	-7.4047985440506539	0	0
4.871258615594126	-5.9319187873739487	0	0
4.9419692937127806	-6.0026294654926033	0	0
5.2601673452467281	-5.967274126433276	0	0
5.8965634483146188	-6.6036702295011667	0	0
5.931918787373947	-4.8712586155941278	0	0
6.0026294654926016	-4.9419692937127815	0	0
5.9672741264332751	-5.2601673452467281	0	0
6.6036702295011676	-5.8965634483146205	0	0
6.2405680595093269	-4.4690190528383305	0	0
6.3271705998877703	-4.5190190528383303	0	0
6.6253756806446589	-4.4025127018922205	0	0
7.404798544050653	-4.8525127018922216	0	0
6.9905680595093269	-3.1699809471616729	0	0
7.0771705998877703	-3.2199809471616723	0	0
7.125375680644658	-3.5364872981077822	0	0
7.904798544050653	-3.9864872981077824	0	0
7.1845931031953025	-2.7015630552549594	0	0
7.2811856858242088	-2.727444959765212	0	0
7.539075612357653	-2.5377273122134483	0	0
8.4084088560178127	-2.7706644528057165	0	0
7.5728216708490832	-1.2526743158213569	0	0
7.6694142534779903	-1.2785562203316085	0	0
7.7978946574601737	-1.5718014859243801	0	0
8.6672279011203344	-1.8047386265166483	0	0
7.6390000000000011	-0.75000000000000266	0	0
7.7390000000000008	-0.75000000000000266	0	0
7.9390000000000018	-0.50000000000000133	0	0
8.8389999999999986	-0.500000000000002	0	0
7.6390000000000011	0.74999999999999734	0	0
7.7390000000000008	0.74999999999999778	0	0
7.9390000000000018	0.49999999999999811	0	0
8.8390000000000004	0.49999999999999711	0	0
7.5728216708490841	1.2526743158213534	0	0
7.6694142534779903	1.2785562203316054	0	0
7.7978946574601746	1.5718014859243767	0	0
8.6672279011203344	1.8047386265166454	0	0
7.1845931031953025	2.7015630552549559	0	0
7.2811856858242088	2.727444959765208	0	0
7.539075612357653	2.5377273122134452	0	0
8.4084088560178145	2.7706644528057138	0	0
6.9905680595093278	3.1699809471616693	0	0
7.0771705998877712	3.2199809471616692	0	0
7.1253756806446598	3.5364872981077795	0	0
7.9047985440506521	3.9864872981077788	0	0
6.2405680595093278	4.4690190528383287	0	0
6.3271705998877712	4.5190190528383285	0	0
6.6253756806446589	4.4025127018922197	0	0
7.4047985440506539	4.8525127018922172	0	0
5.9319187873739487	4.871258615594126	0	0
6.0026294654926033	4.9419692937127806	0	0
5.967274126433276	5.2601673452467281	0	0
6.6036702295011667	5.8965634483146188	0	0
4.8712586155941278	5.931918787373947	0	0
4.9419692937127815	6.0026294654926016	0	0
5.2601673452467281	5.9672741264332751	0	0
5.8965634483146205	6.6036702295011676	0	0
4.4690190528383305	6.2405680595093269	0	0
4.5190190528383303	6.3271705998877703	0	0
4.4025127018922205	6.6253756806446589	0	0
4.8525127018922225	7.404798544050653	0	0
3.1699809471616733	6.9905680595093269	0	0
3.2199809471616727	7.0771705998877703	0	0
3.5364872981077826	7.125375680644658	0	0
3.9864872981077828	7.904798544050653	0	0
2.7015630552549599	7.1845931031953025	0	0
2.7274449597652124	7.2811856858242088	0	0
2.5377273122134487	7.539075612357653	0	0
2.7706644528057169	8.4084088560178127	0	0
1.2526743158213574	7.5728216708490832	0	0
1.278556220331609	7.6694142534779903	0	0
1.5718014859243805	7.7978946574601737	0	0
1.8047386265166487	8.6672279011203344	0	0
11	0	0	0
-11	0	0	0
-3.4310192719252339	-7.2379628871442581	0	0
-2.6919156459162044	-7.5441096330363298	0	0
-3.8137027042903235	-8.1618424196555441	0	0
-3.0745990782812944	-8.4679891655476158	0	0
1.4407874823099367	7.8793484141024628	0	0
0.64763159321088848	7.9837693678785033	0	0
1.5713136745299883	8.8707932754762719	0	0
0.77815778543094005	8.9752142292523143	0	0
3.431019271925233	7.2379628871442581	0	0
2.6919156459162035	7.5441096330363298	0	0
3.8137027042903227	8.1618424196555441	0	0
3.0745990782812931	8.4679891655476158	0	0
-2.6919156459162035	7.5441096330363298	0	0
-3.431019271925233	7.2379628871442581	0	0
-3.0745990782812931	8.4679891655476158	0	0
-3.8137027042903227	8.1618424196555441	0	0
-0.64763159321088848	7.9837693678785033	0	0
-1.4407874823099367	7.8793484141024628	0	0
-0.77815778543094005	8.9752142292523143	0	0
-1.5713136745299883	8.8707932754762719	0	0
2.6919156459162026	-7.5441096330363298	0	0
3.4310192719252322	-7.2379628871442581	0	0
3.0745990782812922	-8.4679891655476158	0	0
3.8137027042903213	-8.1618424196555441	0	0
0.64763159321088737	-7.9837693678785042	0	0
1.4407874823099358	-7.8793484141024628	0	0
0.77815778543093894	-8.9752142292523143	0	0
1.5713136745299872	-8.8707932754762719	0	0
-1.4407874823099378	-7.8793484141024619	0	0
-0.64763159321088937	-7.9837693678785033	0	0
-1.5713136745299894	-8.8707932754762719	0	0
-0.77815778543094116	-8.9752142292523143	0	0
-4.5527500959532707	6.59033129393337	0	0
-5.1874327681862589	6.1033221507263935	0	0
-5.1615115249619912	7.3836846342246041	0	0
-5.7961941971949793	6.8966754910176276	0	0
-6.1033221507263926	5.1874327681862598	0	0
-6.5903312939333691	4.5527500959532716	0	0
-6.8966754910176276	5.7961941971949802	0	0
-7.3836846342246041	5.1615115249619912	0	0
-7.2379628871442581	3.4310192719252344	0	0
-7.5441096330363298	2.6919156459162039	0	0
-8.1618424196555441	3.813702704290324	0	0
-8.4679891655476158	3.0745990782812926	0	0
-7.8793484141024628	1.440787482309938	0	0
-7.9837693678785033	0.64763159321088981	0	0
-8.8707932754762719	1.5713136745299892	0	0
-8.9752142292523125	0.77815778543094094	0	0
-7.9837693678785033	-0.6476315932108867	0	0
-7.8793484141024628	-1.4407874823099349	0	0
-8.9752142292523143	-0.77815778543093828	0	0
-8.8707932754762719	-1.5713136745299874	0	0
-7.5441096330363315	-2.6919156459162017	0	0
-7.2379628871442581	-3.4310192719252317	0	0
-8.4679891655476176	-3.0745990782812909	0	0
-8.1618424196555441	-3.8137027042903218	0	0
-6.59033129393337	-4.552750095953269	0	0
-6.1033221507263953	-5.1874327681862571	0	0
-7.3836846342246059	-5.1615115249619894	0	0
-6.8966754910176284	-5.7961941971949775	0	0
-5.1874327681862624	-6.1033221507263917	0	0
-4.5527500959532716	-6.5903312939333683	0	0
-5.7961941971949829	-6.8966754910176258	0	0
-5.1615115249619921	-7.3836846342246023	0	0
6.5903312939333691	4.5527500959532716	0	0
6.1033221507263926	5.1874327681862598	0	0
7.3836846342246032	5.1615115249619912	0	0
6.8966754910176276	5.7961941971949802	0	0
7.5441096330363298	2.6919156459162035	0	0
7.2379628871442581	3.4310192719252335	0	0
8.4679891655476158	3.0745990782812931	0	0
8.1618424196555441	3.8137027042903227	0	0
5.187432768186258	6.1033221507263926	0	0
4.5527500959532698	6.5903312939333691	0	0
5.7961941971949793	6.8966754910176284	0	0
5.1615115249619903	7.3836846342246041	0	0
7.8793484141024628	-1.4407874823099349	0	0
7.9837693678785033	-0.6476315932108867	0	0
8.8707932754762702	-1.5713136745299874	0	0
8.9752142292523143	-0.77815778543093828	0	0
7.2379628871442581	-3.4310192719252322	0	0
7.5441096330363298	-2.6919156459162021	0	0
8.1618424196555441	-3.8137027042903218	0	0
8.4679891655476158	-3.0745990782812918	0	0
7.9837693678785024	0.64763159321088981	0	0
7.879348414102461	1.4407874823099376	0	0
8.9752142292523143	0.77815778543094183	0	0
8.8707932754762702	1.5713136745299896	0	0
6.1033221507263953	-5.1874327681862571	0	0
6.59033129393337	-4.552750095953269	0	0
6.8966754910176267	-5.7961941971949766	0	0
7.3836846342246059	-5.1615115249619894	0	0
4.5527500959532716	-6.5903312939333691	0	0
5.1874327681862598	-6.1033221507263917	0	0
5.1615115249619921	-7.3836846342246023	0	0
5.7961941971949802	-6.8966754910176258	0	0
-5.0516680464828327e-015	-7.5	0	0
5.0516680464828327e-015	7.5	0	0
3.7499999999999947	-6.49519052838329	0	0
-3.7499999999999947	6.49519052838329	0	0
-3.7500000000000044	-6.49519052838329	0	0
3.7500000000000044	6.49519052838329	0	0
3.7499999999999951	-6.0999999999999996	0	0
-3.7500000000000049	-6.0999999999999996	0	0
3.7500000000000049	6.0999999999999996	0	0
-3.7499999999999951	6.0999999999999996	0	0
1.9999999999999951	-6.0999999999999996	0	0
-2.0000000000000049	-6.0999999999999996	0	0
2.0000000000000049	6.0999999999999996	0	0
-1.9999999999999951	6.0999999999999996	0	0
2.9999999999999951	-5	0	0
3.0000000000000049	5	0	0
1.9999999999999976	-5	0	0
2.0000000000000049	5	0	0
-2.0000000000000049	-5	0	0
-1.9999999999999976	5	0	0
-3.0000000000000049	-5	0	0
-2.9999999999999951	5	0	0
7.6799999999999997	4.3499999999999996	0	0
[NumSegments] = 284
0	1	-1	0	0	0
1	2	-1	0	0	0
2	3	-1	0	0	0
4	5	-1	0	0	0
6	7	-1	0	0	0
5	6	-1	0	0	0
4	0	-1	0	0	0
8	9	-1	0	0	0
9	10	-1	0	0	0
10	11	-1	0	0	0
12	13	-1	0	0	0
14	15	-1	0	0	0
13	14	-1	0	0	0
12	8	-1	0	0	0
16	17	-1	0	0	0
17	18	-1	0	0	0
18	19	-1	0	0	0
20	21	-1	0	0	0
22	23	-1	0	0	0
21	22	-1	0	0	0
20	16	-1	0	0	0
24	25	-1	0	0	0
25	26	-1	0	0	0
26	27	-1	0	0	0
28	29	-1	0	0	0
30	31	-1	0	0	0
29	30	-1	0	0	0
28	24	-1	0	0	0
32	33	-1	0	0	0
33	34	-1	0	0	0
34	35	-1	0	0	0
36	37	-1	0	0	0
38	39	-1	0	0	0
37	38	-1	0	0	0
36	32	-1	0	0	0
40	41	-1	0	0	0
41	42	-1	0	0	0
42	43	-1	0	0	0
44	45	-1	0	0	0
46	47	-1	0	0	0
45	46	-1	0	0	0
44	40	-1	0	0	0
48	49	-1	0	0	0
49	50	-1	0	0	0
50	51	-1	0	0	0
52	53	-1	0	0	0
54	55	-1	0	0	0
53	54	-1	0	0	0
52	48	-1	0	0	0
56	57	-1	0	0	0
57	58	-1	0	0	0
58	59	-1	0	0	0
60	61	-1	0	0	0
62	63	-1	0	0	0
61	62	-1	0	0	0
60	56	-1	0	0	0
64	65	-1	0	0	0
65	66	-1	0	0	0
66	67	-1	0	0	0
68	69	-1	0	0	0
70	71	-1	0	0	0
69	70	-1	0	0	0
68	64	-1	0	0	0
72	73	-1	0	0	0
73	74	-1	0	0	0
74	75	-1	0	0	0
76	77	-1	0	0	0
78	79	-1	0	0	0
77	78	-1	0	0	0
76	72	-1	0	0	0
80	81	-1	0	0	0
81	82	-1	0	0	0
82	83	-1	0	0	0
84	85	-1	0	0	0
86	87	-1	0	0	0
85	86	-1	0	0	0
84	80	-1	0	0	0
88	89	-1	0	0	0
89	90	-1	0	0	0
90	91	-1	0	0	0
92	93	-1	0	0	0
94	95	-1	0	0	0
93	94	-1	0	0	0
92	88	-1	0	0	0
96	97	-1	0	0	0
97	98	-1	0	0	0
98	99	-1	0	0	0
100	101	-1	0	0	0
102	103	-1	0	0	0
101	102	-1	0	0	0
100	96	-1	0	0	0
104	105	-1	0	0	0
105	106	-1	0	0	0
106	107	-1	0	0	0
108	109	-1	0	0	0
110	111	-1	0	0	0
109	110	-1	0	0	0
108	104	-1	0	0	0
112	113	-1	0	0	0
113	114	-1	0	0	0
114	115	-1	0	0	0
116	117	-1	0	0	0
118	119	-1	0	0	0
117	118	-1	0	0	0
116	112	-1	0	0	0
120	121	-1	0	0	0
121	122	-1	0	0	0
122	123	-1	0	0	0
124	125	-1	0	0	0
126	127	-1	0	0	0
125	126	-1	0	0	0
124	120	-1	0	0	0
128	129	-1	0	0	0
129	130	-1	0	0	0
130	131	-1	0	0	0
132	133	-1	0	0	0
134	135	-1	0	0	0
133	134	-1	0	0	0
132	128	-1	0	0	0
136	137	-1	0	0	0
137	138	-1	0	0	0
138	139	-1	0	0	0
140	141	-1	0	0	0
142	143	-1	0	0	0
141	142	-1	0	0	0
140	136	-1	0	0	0
144	145	-1	0	0	0
145	146	-1	0	0	0
146	147	-1	0	0	0
148	149	-1	0	0	0
150	151	-1	0	0	0
149	150	-1	0	0	0
148	144	-1	0	0	0
152	153	-1	0	0	0
153	154	-1	0	0	0
154	155	-1	0	0	0
156	157	-1	0	0	0
158	159	-1	0	0	0
157	158	-1	0	0	0
156	152	-1	0	0	0
160	161	-1	0	0	0
161	162	-1	0	0	0
162	163	-1	0	0	0
164	165	-1	0	0	0
166	167	-1	0	0	0
165	166	-1	0	0	0
164	160	-1	0	0	0
168	169	-1	0	0	0
169	170	-1	0	0	0
170	171	-1	0	0	0
172	173	-1	0	0	0
174	175	-1	0	0	0
173	174	-1	0	0	0
172	168	-1	0	0	0
176	177	-1	0	0	0
177	178	-1	0	0	0
178	179	-1	0	0	0
180	181	-1	0	0	0
182	183	-1	0	0	0
181	182	-1	0	0	0
180	176	-1	0	0	0
184	185	-1	0	0	0
185	186	-1	0	0	0
186	187	-1	0	0	0
188	189	-1	0	0	0
190	191	-1	0	0	0
189	190	-1	0	0	0
188	184	-1	0	0	0
195	194	-1	0	0	0
197	195	-1	0	0	0
196	194	-1	0	0	0
197	196	-1	0	0	0
199	198	-1	0	0	0
201	199	-1	0	0	0
200	198	-1	0	0	0
201	200	-1	0	0	0
203	202	-1	0	0	0
205	203	-1	0	0	0
204	202	-1	0	0	0
205	204	-1	0	0	0
207	206	-1	0	0	0
209	207	-1	0	0	0
208	206	-1	0	0	0
209	208	-1	0	0	0
211	210	-1	0	0	0
213	211	-1	0	0	0
212	210	-1	0	0	0
213	212	-1	0	0	0
215	214	-1	0	0	0
217	215	-1	0	0	0
216	214	-1	0	0	0
217	216	-1	0	0	0
219	218	-1	0	0	0
221	219	-1	0	0	0
220	218	-1	0	0	0
221	220	-1	0	0	0
223	222	-1	0	0	0
225	223	-1	0	0	0
224	222	-1	0	0	0
225	224	-1	0	0	0
229	228	-1	0	0	0
227	226	-1	0	0	0
229	227	-1	0	0	0
228	226	-1	0	0	0
256	254	-1	0	0	0
254	255	-1	0	0	0
255	257	-1	0	0	0
257	256	-1	0	0	0
253	252	-1	0	0	0
252	250	-1	0	0	0
251	250	-1	0	0	0
253	251	-1	0	0	0
249	248	-1	0	0	0
246	247	-1	0	0	0
248	246	-1	0	0	0
249	247	-1	0	0	0
244	242	-1	0	0	0
243	242	-1	0	0	0
245	243	-1	0	0	0
245	244	-1	0	0	0
239	238	-1	0	0	0
238	240	-1	0	0	0
240	241	-1	0	0	0
241	239	-1	0	0	0
235	234	-1	0	0	0
234	236	-1	0	0	0
236	237	-1	0	0	0
237	235	-1	0	0	0
231	230	-1	0	0	0
230	232	-1	0	0	0
232	233	-1	0	0	0
233	231	-1	0	0	0
286	287	-1	0	0	0
287	289	-1	0	0	0
289	288	-1	0	0	0
288	286	-1	0	0	0
282	283	-1	0	0	0
283	285	-1	0	0	0
285	284	-1	0	0	0
284	282	-1	0	0	0
276	277	-1	0	0	0
277	275	-1	0	0	0
275	274	-1	0	0	0
274	276	-1	0	0	0
272	273	-1	0	0	0
273	271	-1	0	0	0
271	270	-1	0	0	0
270	272	-1	0	0	0
280	281	-1	0	0	0
281	279	-1	0	0	0
279	278	-1	0	0	0
278	280	-1	0	0	0
264	265	-1	0	0	0
265	263	-1	0	0	0
263	262	-1	0	0	0
262	264	-1	0	0	0
258	260	-1	0	0	0
260	261	-1	0	0	0
261	259	-1	0	0	0
259	258	-1	0	0	0
268	269	-1	0	0	0
269	267	-1	0	0	0
267	266	-1	0	0	0
266	268	-1	0	0	0
295	298	-1	0	0	0
298	302	-1	0	0	0
302	307	-1	0	0	0
300	296	-1	0	0	0
296	292	-1	0	0	0
294	297	-1	0	0	0
297	301	-1	0	0	0
301	308	-1	0	0	0
308	309	-1	0	0	0
309	303	-1	0	0	0
303	299	-1	0	0	0
293	299	-1	0	0	0
306	300	-1	0	0	0
307	306	-1	0	0	0
305	307	-1	0	0	0
305	304	-1	0	0	0
304	306	-1	0	0	0
309	311	-1	0	0	0
311	310	-1	0	0	0
310	308	-1	0	0	0
[NumArcSegments] = 30
191	3	180	1	0	0	0	1
183	187	180	1	0	0	0	1
175	179	180	1	0	0	0	1
167	171	180	1	0	0	0	1
159	163	180	1	0	0	0	1
151	155	180	1	0	0	0	1
143	147	180	1	0	0	0	1
135	139	180	1	0	0	0	1
127	131	180	1	0	0	0	1
119	123	180	1	0	0	0	1
111	115	180	1	0	0	0	1
103	107	180	1	0	0	0	1
95	99	180	1	0	0	0	1
87	91	180	1	0	0	0	1
79	83	180	1	0	0	0	1
71	75	180	1	0	0	0	1
63	67	180	1	0	0	0	1
55	59	180	1	0	0	0	1
47	51	180	1	0	0	0	1
39	43	180	1	0	0	0	1
31	35	180	1	0	0	0	1
23	27	180	1	0	0	0	1
15	19	180	1	0	0	0	1
7	11	180	1	0	0	0	1
193	192	180	1	1	0	0	1
192	193	180	1	1	0	0	1
294	290	29.999999999999996	1	0	0	0	1
290	292	29.999999999999996	1	0	0	0	1
295	291	29.999999999999996	1	0	0	0	1
291	293	29.999999999999996	1	0	0	0	1
[NumHoles] = 0
[NumBlockLabels] = 29
-3.29	7.8600000000000003	3	-1	1	0	0	30	0
-1.1699999999999999	8.3800000000000008	3	-1	1	0	0	30	0
1.05	8.4000000000000004	3	-1	1	0	0	30	0
3.3100000000000001	7.8200000000000003	3	-1	1	0	0	30	0
-5.25	8.9399999999999995	1	-1	0	0	0	1	0
7.5899999999999999	0.95999999999999996	2	-1	0	0	0	1	0
-3.29	-7.8600000000000003	3	-1	1	0	0	-30	0
-1.1499999999999999	-8.4399999999999995	3	-1	1	0	0	-30	0
1.1899999999999999	-8.3599999999999994	3	-1	1	0	0	-30	0
3.3300000000000001	-7.8799999999999999	3	-1	1	0	0	-30	0
-5.21	-6.7599999999999998	3	-1	3	0	0	30	0
-6.7699999999999996	-5.1799999999999997	3	-1	3	0	0	30	0
-7.8799999999999999	-3.29	3	-1	3	0	0	30	0
-8.5099999999999998	-1.05	1	-1	0	0	0	1	0
5.1699999999999999	6.7699999999999996	3	-1	3	0	0	-30	0
6.75	5.1799999999999997	3	-1	3	0	0	-30	0
7.8499999999999996	3.2200000000000002	3	-1	3	0	0	-30	0
8.4000000000000004	1.1399999999999999	3	-1	3	0	0	-30	0
8.4100000000000001	-1.0900000000000001	3	-1	4	0	0	30	0
7.7800000000000002	-3.2599999999999998	3	-1	4	0	0	30	0
6.71	-5.21	3	-1	4	0	0	30	0
5.1399999999999997	-6.7400000000000002	3	-1	4	0	0	30	0
-5.2199999999999998	6.75	3	-1	4	0	0	-30	0
-6.7800000000000002	5.1699999999999999	3	-1	4	0	0	-30	0
-7.9000000000000004	3.2200000000000002	3	-1	4	0	0	-30	0
-8.4800000000000004	1.04	3	-1	4	0	0	-30	0
0.060000000000001066	1.55	1	-1	0	0	0	1	0
2.54	1.0899999999999976	3	-1	2	0	0	80	0
-2.4900000000000002	0.57000000000000117	3	-1	2	0	0	-80	0
